39
0
C          4.27217       -5.65190       -5.68814
C          5.14368       -6.68468       -5.38203
C          6.07419       -6.53953       -4.37321
C          6.14273       -5.34775       -3.65432
N          7.06450       -5.19880       -2.65283
C          8.32613       -5.29762       -2.91566
C          8.78261       -5.57691       -4.32446
C          9.34059       -5.13358       -1.81348
C         10.15534       -6.39526       -1.68880
O         11.02856       -6.47043       -0.85814
C          9.88036       -7.56300       -2.60077
H          6.77071       -5.01903       -1.74600
C          5.25693       -4.29666       -3.96538
C          5.31573       -3.02932       -3.21411
O          6.33651       -2.36882       -3.21512
C          4.13384       -2.56198       -2.45990
C          3.60488       -3.34336       -1.43026
C          2.50184       -2.90089       -0.73011
C          1.91950       -1.68595       -1.04599
C          2.43822       -0.90685       -2.06540
C          3.54422       -1.33443       -2.76983
C          4.32271       -4.46418       -4.98924
H          3.55115       -5.77623       -6.48255
H          5.09406       -7.61015       -5.93664
H          6.74920       -7.34998       -4.14069
H          8.43813       -4.77946       -4.98286
H          9.87123       -5.62502       -4.35080
H          8.36866       -6.52824       -4.65867
H          9.99936       -4.29730       -2.04744
H          8.82629       -4.93870       -0.87237
H          9.06422       -7.31089       -3.27795
H         10.77544       -7.79074       -3.17952
H          9.60243       -8.43206       -2.00446
H          4.05820       -4.29193       -1.18300
H          2.09157       -3.50427        0.06610
H          1.05599       -1.34430       -0.49455
H          1.97834        0.04001       -2.30715
H          3.94824       -0.72530       -3.56491
H          3.64055       -3.66364       -5.23433
