20
0.000645865378005
C         -0.16700       -0.80400        0.82500
C         -0.77100        0.35600        1.10100
C         -0.78700        1.53300        0.21400
C         -0.72200        1.48800       -1.12000
H         -0.21200       -1.64200        1.51900
H          0.40400       -0.94700       -0.09200
H         -1.28900        0.46900        2.05700
H         -0.87500        2.50500        0.70600
H         -0.67800        0.53800       -1.65500
H         -0.72100        2.39700       -1.72000
C          2.97700        0.08300       -1.77600
C          2.79500        0.46000       -0.50700
C          3.42900       -0.18100        0.65800
C          4.66300       -0.69300        0.66600
H          2.48800        0.60700       -2.59700
H          3.61000       -0.76700       -2.03200
H          2.10300        1.27800       -0.29300
H          2.82800       -0.21400        1.57000
H          5.30600       -0.63200       -0.21300
H          5.07500       -1.17300        1.55200
