20
0.000904267945601
C         -1.35200        1.28900        0.76000
C         -0.20000        0.84900        0.24500
C          0.02600       -0.52300       -0.24400
C         -0.49400       -1.62000        0.31400
H         -1.45900        2.31000        1.12500
H         -2.22900        0.64400        0.81800
H          0.64700        1.53300        0.15900
H          0.68800       -0.62200       -1.10700
H         -1.11300       -1.56200        1.21000
H         -0.30900       -2.61000       -0.10000
C          3.64400        1.38800        0.88000
C          3.32800        0.16400        0.45000
C          3.59200       -0.33300       -0.91300
C          3.50100        0.41100       -2.01900
H          3.40300        1.71400        1.89100
H          4.16900        2.09600        0.23800
H          2.84200       -0.53600        1.13400
H          3.85800       -1.38900       -1.00100
H          3.18800        1.45400       -1.97400
H          3.72500       -0.00000       -3.00200
