20
0.000330301257355
C         -0.19500        1.59100        0.71400
C         -0.26100        0.88800       -0.42000
C         -0.47100       -0.56900       -0.48600
C          0.01200       -1.44300        0.40100
H         -0.02000        2.66600        0.70700
H         -0.32900        1.11300        1.68400
H         -0.16600        1.40700       -1.37600
H         -1.05200       -0.93700       -1.33600
H          0.64600       -1.11600        1.22500
H         -0.19300       -2.50900        0.31600
C          3.20200        0.67700        1.29700
C          3.39700       -0.29900        0.40500
C          3.01500       -0.22300       -1.01500
C          3.02200        0.89600       -1.74400
H          3.52300        0.57400        2.33300
H          2.69700        1.60100        1.01800
H          3.85500       -1.23600        0.73300
H          2.71100       -1.16200       -1.48300
H          3.35600        1.84500       -1.32400
H          2.70700        0.89700       -2.78700
