20
0.00114499403145
C         -0.69600        0.44300        1.95100
C         -0.68000        0.88200        0.68900
C         -0.29000        0.06500       -0.47400
C         -0.54700       -1.23900       -0.60200
H         -1.00800        1.08300        2.77400
H         -0.38600       -0.57300        2.19900
H         -0.94900        1.92200        0.48500
H          0.24400        0.58300       -1.27400
H         -1.11600       -1.78300        0.15300
H         -0.20900       -1.79900       -1.47300
C          4.00000        1.68900        0.38700
C          3.08000        0.72700        0.27800
C          3.12300       -0.35800       -0.71900
C          3.58800       -0.22700       -1.96500
H          3.91000        2.48000        1.13100
H          4.88100        1.70700       -0.25500
H          2.23500        0.71300        0.97100
H          2.71400       -1.32000       -0.40200
H          3.95000        0.73300       -2.33600
H          3.61100       -1.06800       -2.65600
