20
0.00102730642946
C         -1.32500        0.73200        1.77500
C         -0.34800        0.90000        0.88000
C         -0.17700        0.08500       -0.33600
C         -0.48100       -1.21300       -0.43300
H         -1.39200        1.35400        2.66600
H         -2.10000       -0.02300        1.63600
H          0.38300        1.69800        1.02500
H          0.25300        0.59600       -1.20100
H         -0.85900       -1.77400        0.42200
H         -0.35300       -1.75700       -1.36800
C          3.42300        1.74100        0.22800
C          3.13400        0.43600        0.22900
C          3.29600       -0.45900       -0.93100
C          4.26500       -0.35000       -1.84400
H          3.30400        2.35000        1.12300
H          3.77900        2.24300       -0.67200
H          2.72500       -0.01800        1.13400
H          2.56500       -1.26700       -1.01400
H          5.03700        0.41500       -1.76300
H          4.32600       -1.03100       -2.69200
