20
0.0
C          0.08000        0.01500        1.51100
C         -0.81000        0.69600        0.78400
C         -0.77300        0.81300       -0.68500
C         -0.32100       -0.13400       -1.51200
H         -0.00600       -0.04700        2.59500
H          0.93300       -0.48200        1.04900
H         -1.62000        1.22700        1.29100
H         -1.16000        1.74500       -1.10600
H          0.02700       -1.09500       -1.13400
H         -0.29800        0.01600       -2.59100
C          2.95900        1.72700       -0.02900
C          3.83300        0.81800        0.41000
C          3.69500       -0.63600        0.21100
C          3.13500       -1.20800       -0.86000
H          3.12100        2.79200        0.13700
H          2.04500        1.43600       -0.54800
H          4.70900        1.14600        0.97500
H          4.09700       -1.27500        1.00200
H          2.76800       -0.60700       -1.69300
H          3.04100       -2.28900       -0.94400
